New Loadshape.Shape_1 npts=336 interval=0.5 mult=(file=1week_30min_profiles\Load_profile_1.csv) useactual=true
New Loadshape.Shape_2 npts=336 interval=0.5 mult=(file=1week_30min_profiles\Load_profile_2.csv) useactual=true
New Loadshape.Shape_3 npts=336 interval=0.5 mult=(file=1week_30min_profiles\Load_profile_3.csv) useactual=true
New Loadshape.Shape_4 npts=336 interval=0.5 mult=(file=1week_30min_profiles\Load_profile_4.csv) useactual=true
New Loadshape.Shape_5 npts=336 interval=0.5 mult=(file=1week_30min_profiles\Load_profile_5.csv) useactual=true
New Loadshape.Shape_6 npts=336 interval=0.5 mult=(file=1week_30min_profiles\Load_profile_6.csv) useactual=true
New Loadshape.Shape_7 npts=336 interval=0.5 mult=(file=1week_30min_profiles\Load_profile_7.csv) useactual=true
New Loadshape.Shape_8 npts=336 interval=0.5 mult=(file=1week_30min_profiles\Load_profile_8.csv) useactual=true
New Loadshape.Shape_9 npts=336 interval=0.5 mult=(file=1week_30min_profiles\Load_profile_9.csv) useactual=true
New Loadshape.Shape_10 npts=336 interval=0.5 mult=(file=1week_30min_profiles\Load_profile_10.csv) useactual=true
New Loadshape.Shape_11 npts=336 interval=0.5 mult=(file=1week_30min_profiles\Load_profile_11.csv) useactual=true
New Loadshape.Shape_12 npts=336 interval=0.5 mult=(file=1week_30min_profiles\Load_profile_12.csv) useactual=true
New Loadshape.Shape_13 npts=336 interval=0.5 mult=(file=1week_30min_profiles\Load_profile_13.csv) useactual=true
New Loadshape.Shape_14 npts=336 interval=0.5 mult=(file=1week_30min_profiles\Load_profile_14.csv) useactual=true
New Loadshape.Shape_15 npts=336 interval=0.5 mult=(file=1week_30min_profiles\Load_profile_15.csv) useactual=true
New Loadshape.Shape_16 npts=336 interval=0.5 mult=(file=1week_30min_profiles\Load_profile_16.csv) useactual=true
New Loadshape.Shape_17 npts=336 interval=0.5 mult=(file=1week_30min_profiles\Load_profile_17.csv) useactual=true
New Loadshape.Shape_18 npts=336 interval=0.5 mult=(file=1week_30min_profiles\Load_profile_18.csv) useactual=true
New Loadshape.Shape_19 npts=336 interval=0.5 mult=(file=1week_30min_profiles\Load_profile_19.csv) useactual=true
New Loadshape.Shape_20 npts=336 interval=0.5 mult=(file=1week_30min_profiles\Load_profile_20.csv) useactual=true
New Loadshape.Shape_21 npts=336 interval=0.5 mult=(file=1week_30min_profiles\Load_profile_21.csv) useactual=true
New Loadshape.Shape_22 npts=336 interval=0.5 mult=(file=1week_30min_profiles\Load_profile_22.csv) useactual=true
New Loadshape.Shape_23 npts=336 interval=0.5 mult=(file=1week_30min_profiles\Load_profile_23.csv) useactual=true
New Loadshape.Shape_24 npts=336 interval=0.5 mult=(file=1week_30min_profiles\Load_profile_24.csv) useactual=true
New Loadshape.Shape_25 npts=336 interval=0.5 mult=(file=1week_30min_profiles\Load_profile_25.csv) useactual=true
New Loadshape.Shape_26 npts=336 interval=0.5 mult=(file=1week_30min_profiles\Load_profile_26.csv) useactual=true
New Loadshape.Shape_27 npts=336 interval=0.5 mult=(file=1week_30min_profiles\Load_profile_27.csv) useactual=true
New Loadshape.Shape_28 npts=336 interval=0.5 mult=(file=1week_30min_profiles\Load_profile_28.csv) useactual=true
New Loadshape.Shape_29 npts=336 interval=0.5 mult=(file=1week_30min_profiles\Load_profile_29.csv) useactual=true
New Loadshape.Shape_30 npts=336 interval=0.5 mult=(file=1week_30min_profiles\Load_profile_30.csv) useactual=true
New Loadshape.Shape_31 npts=336 interval=0.5 mult=(file=1week_30min_profiles\Load_profile_31.csv) useactual=true
New Loadshape.Shape_32 npts=336 interval=0.5 mult=(file=1week_30min_profiles\Load_profile_32.csv) useactual=true
New Loadshape.Shape_33 npts=336 interval=0.5 mult=(file=1week_30min_profiles\Load_profile_33.csv) useactual=true
New Loadshape.Shape_34 npts=336 interval=0.5 mult=(file=1week_30min_profiles\Load_profile_34.csv) useactual=true
New Loadshape.Shape_35 npts=336 interval=0.5 mult=(file=1week_30min_profiles\Load_profile_35.csv) useactual=true
New Loadshape.Shape_36 npts=336 interval=0.5 mult=(file=1week_30min_profiles\Load_profile_36.csv) useactual=true
New Loadshape.Shape_37 npts=336 interval=0.5 mult=(file=1week_30min_profiles\Load_profile_37.csv) useactual=true
New Loadshape.Shape_38 npts=336 interval=0.5 mult=(file=1week_30min_profiles\Load_profile_38.csv) useactual=true
New Loadshape.Shape_39 npts=336 interval=0.5 mult=(file=1week_30min_profiles\Load_profile_39.csv) useactual=true
New Loadshape.Shape_40 npts=336 interval=0.5 mult=(file=1week_30min_profiles\Load_profile_40.csv) useactual=true
New Loadshape.Shape_41 npts=336 interval=0.5 mult=(file=1week_30min_profiles\Load_profile_41.csv) useactual=true
New Loadshape.Shape_42 npts=336 interval=0.5 mult=(file=1week_30min_profiles\Load_profile_42.csv) useactual=true
New Loadshape.Shape_43 npts=336 interval=0.5 mult=(file=1week_30min_profiles\Load_profile_43.csv) useactual=true
New Loadshape.Shape_44 npts=336 interval=0.5 mult=(file=1week_30min_profiles\Load_profile_44.csv) useactual=true
New Loadshape.Shape_45 npts=336 interval=0.5 mult=(file=1week_30min_profiles\Load_profile_45.csv) useactual=true
New Loadshape.Shape_46 npts=336 interval=0.5 mult=(file=1week_30min_profiles\Load_profile_46.csv) useactual=true
New Loadshape.Shape_47 npts=336 interval=0.5 mult=(file=1week_30min_profiles\Load_profile_47.csv) useactual=true
New Loadshape.Shape_48 npts=336 interval=0.5 mult=(file=1week_30min_profiles\Load_profile_48.csv) useactual=true
New Loadshape.Shape_49 npts=336 interval=0.5 mult=(file=1week_30min_profiles\Load_profile_49.csv) useactual=true
New Loadshape.Shape_50 npts=336 interval=0.5 mult=(file=1week_30min_profiles\Load_profile_50.csv) useactual=true
New Loadshape.Shape_51 npts=336 interval=0.5 mult=(file=1week_30min_profiles\Load_profile_51.csv) useactual=true
New Loadshape.Shape_52 npts=336 interval=0.5 mult=(file=1week_30min_profiles\Load_profile_52.csv) useactual=true
New Loadshape.Shape_53 npts=336 interval=0.5 mult=(file=1week_30min_profiles\Load_profile_53.csv) useactual=true
New Loadshape.Shape_54 npts=336 interval=0.5 mult=(file=1week_30min_profiles\Load_profile_54.csv) useactual=true
New Loadshape.Shape_55 npts=336 interval=0.5 mult=(file=1week_30min_profiles\Load_profile_55.csv) useactual=true
New Loadshape.Shape_56 npts=336 interval=0.5 mult=(file=1week_30min_profiles\Load_profile_56.csv) useactual=true
New Loadshape.Shape_57 npts=336 interval=0.5 mult=(file=1week_30min_profiles\Load_profile_57.csv) useactual=true
New Loadshape.Shape_58 npts=336 interval=0.5 mult=(file=1week_30min_profiles\Load_profile_58.csv) useactual=true
New Loadshape.Shape_59 npts=336 interval=0.5 mult=(file=1week_30min_profiles\Load_profile_59.csv) useactual=true
New Loadshape.Shape_60 npts=336 interval=0.5 mult=(file=1week_30min_profiles\Load_profile_60.csv) useactual=true
New Loadshape.Shape_61 npts=336 interval=0.5 mult=(file=1week_30min_profiles\Load_profile_61.csv) useactual=true
New Loadshape.Shape_62 npts=336 interval=0.5 mult=(file=1week_30min_profiles\Load_profile_62.csv) useactual=true
New Loadshape.Shape_63 npts=336 interval=0.5 mult=(file=1week_30min_profiles\Load_profile_63.csv) useactual=true
New Loadshape.Shape_64 npts=336 interval=0.5 mult=(file=1week_30min_profiles\Load_profile_64.csv) useactual=true
New Loadshape.Shape_65 npts=336 interval=0.5 mult=(file=1week_30min_profiles\Load_profile_65.csv) useactual=true
New Loadshape.Shape_66 npts=336 interval=0.5 mult=(file=1week_30min_profiles\Load_profile_66.csv) useactual=true
New Loadshape.Shape_67 npts=336 interval=0.5 mult=(file=1week_30min_profiles\Load_profile_67.csv) useactual=true
New Loadshape.Shape_68 npts=336 interval=0.5 mult=(file=1week_30min_profiles\Load_profile_68.csv) useactual=true
New Loadshape.Shape_69 npts=336 interval=0.5 mult=(file=1week_30min_profiles\Load_profile_69.csv) useactual=true
New Loadshape.Shape_70 npts=336 interval=0.5 mult=(file=1week_30min_profiles\Load_profile_70.csv) useactual=true
New Loadshape.Shape_71 npts=336 interval=0.5 mult=(file=1week_30min_profiles\Load_profile_71.csv) useactual=true
New Loadshape.Shape_72 npts=336 interval=0.5 mult=(file=1week_30min_profiles\Load_profile_72.csv) useactual=true
New Loadshape.Shape_73 npts=336 interval=0.5 mult=(file=1week_30min_profiles\Load_profile_73.csv) useactual=true
New Loadshape.Shape_74 npts=336 interval=0.5 mult=(file=1week_30min_profiles\Load_profile_74.csv) useactual=true
New Loadshape.Shape_75 npts=336 interval=0.5 mult=(file=1week_30min_profiles\Load_profile_75.csv) useactual=true
New Loadshape.Shape_76 npts=336 interval=0.5 mult=(file=1week_30min_profiles\Load_profile_76.csv) useactual=true
New Loadshape.Shape_77 npts=336 interval=0.5 mult=(file=1week_30min_profiles\Load_profile_77.csv) useactual=true
New Loadshape.Shape_78 npts=336 interval=0.5 mult=(file=1week_30min_profiles\Load_profile_78.csv) useactual=true
New Loadshape.Shape_79 npts=336 interval=0.5 mult=(file=1week_30min_profiles\Load_profile_79.csv) useactual=true
New Loadshape.Shape_80 npts=336 interval=0.5 mult=(file=1week_30min_profiles\Load_profile_80.csv) useactual=true
New Loadshape.Shape_81 npts=336 interval=0.5 mult=(file=1week_30min_profiles\Load_profile_81.csv) useactual=true
New Loadshape.Shape_82 npts=336 interval=0.5 mult=(file=1week_30min_profiles\Load_profile_82.csv) useactual=true
New Loadshape.Shape_83 npts=336 interval=0.5 mult=(file=1week_30min_profiles\Load_profile_83.csv) useactual=true
New Loadshape.Shape_84 npts=336 interval=0.5 mult=(file=1week_30min_profiles\Load_profile_84.csv) useactual=true
New Loadshape.Shape_85 npts=336 interval=0.5 mult=(file=1week_30min_profiles\Load_profile_85.csv) useactual=true
New Loadshape.Shape_86 npts=336 interval=0.5 mult=(file=1week_30min_profiles\Load_profile_86.csv) useactual=true
New Loadshape.Shape_87 npts=336 interval=0.5 mult=(file=1week_30min_profiles\Load_profile_87.csv) useactual=true
New Loadshape.Shape_88 npts=336 interval=0.5 mult=(file=1week_30min_profiles\Load_profile_88.csv) useactual=true
New Loadshape.Shape_89 npts=336 interval=0.5 mult=(file=1week_30min_profiles\Load_profile_89.csv) useactual=true
New Loadshape.Shape_90 npts=336 interval=0.5 mult=(file=1week_30min_profiles\Load_profile_90.csv) useactual=true
New Loadshape.Shape_91 npts=336 interval=0.5 mult=(file=1week_30min_profiles\Load_profile_91.csv) useactual=true
New Loadshape.Shape_92 npts=336 interval=0.5 mult=(file=1week_30min_profiles\Load_profile_92.csv) useactual=true
New Loadshape.Shape_93 npts=336 interval=0.5 mult=(file=1week_30min_profiles\Load_profile_93.csv) useactual=true
New Loadshape.Shape_94 npts=336 interval=0.5 mult=(file=1week_30min_profiles\Load_profile_94.csv) useactual=true
New Loadshape.Shape_95 npts=336 interval=0.5 mult=(file=1week_30min_profiles\Load_profile_95.csv) useactual=true
New Loadshape.Shape_96 npts=336 interval=0.5 mult=(file=1week_30min_profiles\Load_profile_96.csv) useactual=true
New Loadshape.Shape_97 npts=336 interval=0.5 mult=(file=1week_30min_profiles\Load_profile_97.csv) useactual=true
New Loadshape.Shape_98 npts=336 interval=0.5 mult=(file=1week_30min_profiles\Load_profile_98.csv) useactual=true
New Loadshape.Shape_99 npts=336 interval=0.5 mult=(file=1week_30min_profiles\Load_profile_99.csv) useactual=true
New Loadshape.Shape_100 npts=336 interval=0.5 mult=(file=1week_30min_profiles\Load_profile_100.csv) useactual=true
New Loadshape.Shape_101 npts=336 interval=0.5 mult=(file=1week_30min_profiles\Load_profile_101.csv) useactual=true
New Loadshape.Shape_102 npts=336 interval=0.5 mult=(file=1week_30min_profiles\Load_profile_102.csv) useactual=true
New Loadshape.Shape_103 npts=336 interval=0.5 mult=(file=1week_30min_profiles\Load_profile_103.csv) useactual=true
New Loadshape.Shape_104 npts=336 interval=0.5 mult=(file=1week_30min_profiles\Load_profile_104.csv) useactual=true
New Loadshape.Shape_105 npts=336 interval=0.5 mult=(file=1week_30min_profiles\Load_profile_105.csv) useactual=true
New Loadshape.Shape_106 npts=336 interval=0.5 mult=(file=1week_30min_profiles\Load_profile_106.csv) useactual=true
New Loadshape.Shape_107 npts=336 interval=0.5 mult=(file=1week_30min_profiles\Load_profile_107.csv) useactual=true
New Loadshape.Shape_108 npts=336 interval=0.5 mult=(file=1week_30min_profiles\Load_profile_108.csv) useactual=true
New Loadshape.Shape_109 npts=336 interval=0.5 mult=(file=1week_30min_profiles\Load_profile_109.csv) useactual=true
New Loadshape.Shape_110 npts=336 interval=0.5 mult=(file=1week_30min_profiles\Load_profile_110.csv) useactual=true
New Loadshape.Shape_111 npts=336 interval=0.5 mult=(file=1week_30min_profiles\Load_profile_111.csv) useactual=true
New Loadshape.Shape_112 npts=336 interval=0.5 mult=(file=1week_30min_profiles\Load_profile_112.csv) useactual=true
New Loadshape.Shape_113 npts=336 interval=0.5 mult=(file=1week_30min_profiles\Load_profile_113.csv) useactual=true
New Loadshape.Shape_114 npts=336 interval=0.5 mult=(file=1week_30min_profiles\Load_profile_114.csv) useactual=true
New Loadshape.Shape_115 npts=336 interval=0.5 mult=(file=1week_30min_profiles\Load_profile_115.csv) useactual=true
New Loadshape.Shape_116 npts=336 interval=0.5 mult=(file=1week_30min_profiles\Load_profile_116.csv) useactual=true
New Loadshape.Shape_117 npts=336 interval=0.5 mult=(file=1week_30min_profiles\Load_profile_117.csv) useactual=true
New Loadshape.Shape_118 npts=336 interval=0.5 mult=(file=1week_30min_profiles\Load_profile_118.csv) useactual=true
New Loadshape.Shape_119 npts=336 interval=0.5 mult=(file=1week_30min_profiles\Load_profile_119.csv) useactual=true
New Loadshape.Shape_120 npts=336 interval=0.5 mult=(file=1week_30min_profiles\Load_profile_120.csv) useactual=true
New Loadshape.Shape_121 npts=336 interval=0.5 mult=(file=1week_30min_profiles\Load_profile_121.csv) useactual=true
New Loadshape.Shape_122 npts=336 interval=0.5 mult=(file=1week_30min_profiles\Load_profile_122.csv) useactual=true
New Loadshape.Shape_123 npts=336 interval=0.5 mult=(file=1week_30min_profiles\Load_profile_123.csv) useactual=true
New Loadshape.Shape_124 npts=336 interval=0.5 mult=(file=1week_30min_profiles\Load_profile_124.csv) useactual=true
New Loadshape.Shape_125 npts=336 interval=0.5 mult=(file=1week_30min_profiles\Load_profile_125.csv) useactual=true
New Loadshape.Shape_126 npts=336 interval=0.5 mult=(file=1week_30min_profiles\Load_profile_126.csv) useactual=true
New Loadshape.Shape_127 npts=336 interval=0.5 mult=(file=1week_30min_profiles\Load_profile_127.csv) useactual=true
New Loadshape.Shape_128 npts=336 interval=0.5 mult=(file=1week_30min_profiles\Load_profile_128.csv) useactual=true
New Loadshape.Shape_129 npts=336 interval=0.5 mult=(file=1week_30min_profiles\Load_profile_129.csv) useactual=true
New Loadshape.Shape_130 npts=336 interval=0.5 mult=(file=1week_30min_profiles\Load_profile_130.csv) useactual=true
New Loadshape.Shape_131 npts=336 interval=0.5 mult=(file=1week_30min_profiles\Load_profile_131.csv) useactual=true
New Loadshape.Shape_132 npts=336 interval=0.5 mult=(file=1week_30min_profiles\Load_profile_132.csv) useactual=true
New Loadshape.Shape_133 npts=336 interval=0.5 mult=(file=1week_30min_profiles\Load_profile_133.csv) useactual=true
New Loadshape.Shape_134 npts=336 interval=0.5 mult=(file=1week_30min_profiles\Load_profile_134.csv) useactual=true
New Loadshape.Shape_135 npts=336 interval=0.5 mult=(file=1week_30min_profiles\Load_profile_135.csv) useactual=true
New Loadshape.Shape_136 npts=336 interval=0.5 mult=(file=1week_30min_profiles\Load_profile_136.csv) useactual=true
New Loadshape.Shape_137 npts=336 interval=0.5 mult=(file=1week_30min_profiles\Load_profile_137.csv) useactual=true
New Loadshape.Shape_138 npts=336 interval=0.5 mult=(file=1week_30min_profiles\Load_profile_138.csv) useactual=true
New Loadshape.Shape_139 npts=336 interval=0.5 mult=(file=1week_30min_profiles\Load_profile_139.csv) useactual=true
New Loadshape.Shape_140 npts=336 interval=0.5 mult=(file=1week_30min_profiles\Load_profile_140.csv) useactual=true
New Loadshape.Shape_141 npts=336 interval=0.5 mult=(file=1week_30min_profiles\Load_profile_141.csv) useactual=true
New Loadshape.Shape_142 npts=336 interval=0.5 mult=(file=1week_30min_profiles\Load_profile_142.csv) useactual=true
New Loadshape.Shape_143 npts=336 interval=0.5 mult=(file=1week_30min_profiles\Load_profile_143.csv) useactual=true
New Loadshape.Shape_144 npts=336 interval=0.5 mult=(file=1week_30min_profiles\Load_profile_144.csv) useactual=true
New Loadshape.Shape_145 npts=336 interval=0.5 mult=(file=1week_30min_profiles\Load_profile_145.csv) useactual=true
New Loadshape.Shape_146 npts=336 interval=0.5 mult=(file=1week_30min_profiles\Load_profile_146.csv) useactual=true
New Loadshape.Shape_147 npts=336 interval=0.5 mult=(file=1week_30min_profiles\Load_profile_147.csv) useactual=true
New Loadshape.Shape_148 npts=336 interval=0.5 mult=(file=1week_30min_profiles\Load_profile_148.csv) useactual=true
New Loadshape.Shape_149 npts=336 interval=0.5 mult=(file=1week_30min_profiles\Load_profile_149.csv) useactual=true
New Loadshape.Shape_150 npts=336 interval=0.5 mult=(file=1week_30min_profiles\Load_profile_150.csv) useactual=true
New Loadshape.Shape_151 npts=336 interval=0.5 mult=(file=1week_30min_profiles\Load_profile_151.csv) useactual=true
New Loadshape.Shape_152 npts=336 interval=0.5 mult=(file=1week_30min_profiles\Load_profile_152.csv) useactual=true
New Loadshape.Shape_153 npts=336 interval=0.5 mult=(file=1week_30min_profiles\Load_profile_153.csv) useactual=true
New Loadshape.Shape_154 npts=336 interval=0.5 mult=(file=1week_30min_profiles\Load_profile_154.csv) useactual=true
New Loadshape.Shape_155 npts=336 interval=0.5 mult=(file=1week_30min_profiles\Load_profile_155.csv) useactual=true
New Loadshape.Shape_156 npts=336 interval=0.5 mult=(file=1week_30min_profiles\Load_profile_156.csv) useactual=true
New Loadshape.Shape_157 npts=336 interval=0.5 mult=(file=1week_30min_profiles\Load_profile_157.csv) useactual=true
New Loadshape.Shape_158 npts=336 interval=0.5 mult=(file=1week_30min_profiles\Load_profile_158.csv) useactual=true
New Loadshape.Shape_159 npts=336 interval=0.5 mult=(file=1week_30min_profiles\Load_profile_159.csv) useactual=true
New Loadshape.Shape_160 npts=336 interval=0.5 mult=(file=1week_30min_profiles\Load_profile_160.csv) useactual=true
New Loadshape.Shape_161 npts=336 interval=0.5 mult=(file=1week_30min_profiles\Load_profile_161.csv) useactual=true
