New Loadshape.PV_Shape_1 npts=336 interval=0.5 mult=(file=1week_30min_gen_pv\gen_wonm_profile_1.csv) useactual=true
New Loadshape.PV_Shape_2 npts=336 interval=0.5 mult=(file=1week_30min_gen_pv\gen_wonm_profile_2.csv) useactual=true
New Loadshape.PV_Shape_3 npts=336 interval=0.5 mult=(file=1week_30min_gen_pv\gen_wonm_profile_3.csv) useactual=true
New Loadshape.PV_Shape_4 npts=336 interval=0.5 mult=(file=1week_30min_gen_pv\gen_wonm_profile_4.csv) useactual=true
New Loadshape.PV_Shape_5 npts=336 interval=0.5 mult=(file=1week_30min_gen_pv\gen_wonm_profile_5.csv) useactual=true
New Loadshape.PV_Shape_6 npts=336 interval=0.5 mult=(file=1week_30min_gen_pv\gen_wonm_profile_6.csv) useactual=true
New Loadshape.PV_Shape_7 npts=336 interval=0.5 mult=(file=1week_30min_gen_pv\gen_wonm_profile_7.csv) useactual=true
New Loadshape.PV_Shape_8 npts=336 interval=0.5 mult=(file=1week_30min_gen_pv\gen_wonm_profile_8.csv) useactual=true
New Loadshape.PV_Shape_9 npts=336 interval=0.5 mult=(file=1week_30min_gen_pv\gen_wonm_profile_9.csv) useactual=true
New Loadshape.PV_Shape_10 npts=336 interval=0.5 mult=(file=1week_30min_gen_pv\gen_wonm_profile_10.csv) useactual=true
New Loadshape.PV_Shape_11 npts=336 interval=0.5 mult=(file=1week_30min_gen_pv\gen_wonm_profile_11.csv) useactual=true
New Loadshape.PV_Shape_12 npts=336 interval=0.5 mult=(file=1week_30min_gen_pv\gen_wonm_profile_12.csv) useactual=true
New Loadshape.PV_Shape_13 npts=336 interval=0.5 mult=(file=1week_30min_gen_pv\gen_wonm_profile_13.csv) useactual=true
New Loadshape.PV_Shape_14 npts=336 interval=0.5 mult=(file=1week_30min_gen_pv\gen_wonm_profile_14.csv) useactual=true
New Loadshape.PV_Shape_15 npts=336 interval=0.5 mult=(file=1week_30min_gen_pv\gen_wonm_profile_15.csv) useactual=true
New Loadshape.PV_Shape_16 npts=336 interval=0.5 mult=(file=1week_30min_gen_pv\gen_wonm_profile_16.csv) useactual=true
New Loadshape.PV_Shape_17 npts=336 interval=0.5 mult=(file=1week_30min_gen_pv\gen_wonm_profile_17.csv) useactual=true
New Loadshape.PV_Shape_18 npts=336 interval=0.5 mult=(file=1week_30min_gen_pv\gen_wonm_profile_18.csv) useactual=true
New Loadshape.PV_Shape_19 npts=336 interval=0.5 mult=(file=1week_30min_gen_pv\gen_wonm_profile_19.csv) useactual=true
New Loadshape.PV_Shape_20 npts=336 interval=0.5 mult=(file=1week_30min_gen_pv\gen_wonm_profile_20.csv) useactual=true
New Loadshape.PV_Shape_21 npts=336 interval=0.5 mult=(file=1week_30min_gen_pv\gen_wonm_profile_21.csv) useactual=true
New Loadshape.PV_Shape_22 npts=336 interval=0.5 mult=(file=1week_30min_gen_pv\gen_wonm_profile_22.csv) useactual=true
New Loadshape.PV_Shape_23 npts=336 interval=0.5 mult=(file=1week_30min_gen_pv\gen_wonm_profile_23.csv) useactual=true
New Loadshape.PV_Shape_24 npts=336 interval=0.5 mult=(file=1week_30min_gen_pv\gen_wonm_profile_24.csv) useactual=true
New Loadshape.PV_Shape_25 npts=336 interval=0.5 mult=(file=1week_30min_gen_pv\gen_wonm_profile_25.csv) useactual=true
New Loadshape.PV_Shape_26 npts=336 interval=0.5 mult=(file=1week_30min_gen_pv\gen_wonm_profile_26.csv) useactual=true
New Loadshape.PV_Shape_27 npts=336 interval=0.5 mult=(file=1week_30min_gen_pv\gen_wonm_profile_27.csv) useactual=true
New Loadshape.PV_Shape_28 npts=336 interval=0.5 mult=(file=1week_30min_gen_pv\gen_wonm_profile_28.csv) useactual=true
New Loadshape.PV_Shape_29 npts=336 interval=0.5 mult=(file=1week_30min_gen_pv\gen_wonm_profile_29.csv) useactual=true
New Loadshape.PV_Shape_30 npts=336 interval=0.5 mult=(file=1week_30min_gen_pv\gen_wonm_profile_30.csv) useactual=true
New Loadshape.PV_Shape_31 npts=336 interval=0.5 mult=(file=1week_30min_gen_pv\gen_wonm_profile_31.csv) useactual=true
New Loadshape.PV_Shape_32 npts=336 interval=0.5 mult=(file=1week_30min_gen_pv\gen_wonm_profile_32.csv) useactual=true
New Loadshape.PV_Shape_33 npts=336 interval=0.5 mult=(file=1week_30min_gen_pv\gen_wonm_profile_33.csv) useactual=true
New Loadshape.PV_Shape_34 npts=336 interval=0.5 mult=(file=1week_30min_gen_pv\gen_wonm_profile_34.csv) useactual=true
New Loadshape.PV_Shape_35 npts=336 interval=0.5 mult=(file=1week_30min_gen_pv\gen_wonm_profile_35.csv) useactual=true
New Loadshape.PV_Shape_36 npts=336 interval=0.5 mult=(file=1week_30min_gen_pv\gen_wonm_profile_36.csv) useactual=true
New Loadshape.PV_Shape_37 npts=336 interval=0.5 mult=(file=1week_30min_gen_pv\gen_wonm_profile_37.csv) useactual=true
New Loadshape.PV_Shape_38 npts=336 interval=0.5 mult=(file=1week_30min_gen_pv\gen_wonm_profile_38.csv) useactual=true
New Loadshape.PV_Shape_39 npts=336 interval=0.5 mult=(file=1week_30min_gen_pv\gen_wonm_profile_39.csv) useactual=true
New Loadshape.PV_Shape_40 npts=336 interval=0.5 mult=(file=1week_30min_gen_pv\gen_wonm_profile_40.csv) useactual=true
New Loadshape.PV_Shape_41 npts=336 interval=0.5 mult=(file=1week_30min_gen_pv\gen_wonm_profile_41.csv) useactual=true
New Loadshape.PV_Shape_42 npts=336 interval=0.5 mult=(file=1week_30min_gen_pv\gen_wonm_profile_42.csv) useactual=true
New Loadshape.PV_Shape_43 npts=336 interval=0.5 mult=(file=1week_30min_gen_pv\gen_wonm_profile_43.csv) useactual=true
New Loadshape.PV_Shape_44 npts=336 interval=0.5 mult=(file=1week_30min_gen_pv\gen_wonm_profile_44.csv) useactual=true
New Loadshape.PV_Shape_45 npts=336 interval=0.5 mult=(file=1week_30min_gen_pv\gen_wonm_profile_45.csv) useactual=true
New Loadshape.PV_Shape_46 npts=336 interval=0.5 mult=(file=1week_30min_gen_pv\gen_wonm_profile_46.csv) useactual=true
New Loadshape.PV_Shape_47 npts=336 interval=0.5 mult=(file=1week_30min_gen_pv\gen_wonm_profile_47.csv) useactual=true
New Loadshape.PV_Shape_48 npts=336 interval=0.5 mult=(file=1week_30min_gen_pv\gen_wonm_profile_48.csv) useactual=true
New Loadshape.PV_Shape_49 npts=336 interval=0.5 mult=(file=1week_30min_gen_pv\gen_wonm_profile_49.csv) useactual=true
New Loadshape.PV_Shape_50 npts=336 interval=0.5 mult=(file=1week_30min_gen_pv\gen_wonm_profile_50.csv) useactual=true
New Loadshape.PV_Shape_51 npts=336 interval=0.5 mult=(file=1week_30min_gen_pv\gen_wonm_profile_51.csv) useactual=true
New Loadshape.PV_Shape_52 npts=336 interval=0.5 mult=(file=1week_30min_gen_pv\gen_wonm_profile_52.csv) useactual=true
New Loadshape.PV_Shape_53 npts=336 interval=0.5 mult=(file=1week_30min_gen_pv\gen_wonm_profile_53.csv) useactual=true
New Loadshape.PV_Shape_54 npts=336 interval=0.5 mult=(file=1week_30min_gen_pv\gen_wonm_profile_54.csv) useactual=true
New Loadshape.PV_Shape_55 npts=336 interval=0.5 mult=(file=1week_30min_gen_pv\gen_wonm_profile_55.csv) useactual=true
New Loadshape.PV_Shape_56 npts=336 interval=0.5 mult=(file=1week_30min_gen_pv\gen_wonm_profile_56.csv) useactual=true
New Loadshape.PV_Shape_57 npts=336 interval=0.5 mult=(file=1week_30min_gen_pv\gen_wonm_profile_57.csv) useactual=true
New Loadshape.PV_Shape_58 npts=336 interval=0.5 mult=(file=1week_30min_gen_pv\gen_wonm_profile_58.csv) useactual=true
New Loadshape.PV_Shape_59 npts=336 interval=0.5 mult=(file=1week_30min_gen_pv\gen_wonm_profile_59.csv) useactual=true
New Loadshape.PV_Shape_60 npts=336 interval=0.5 mult=(file=1week_30min_gen_pv\gen_wonm_profile_60.csv) useactual=true
New Loadshape.PV_Shape_61 npts=336 interval=0.5 mult=(file=1week_30min_gen_pv\gen_wonm_profile_61.csv) useactual=true
New Loadshape.PV_Shape_62 npts=336 interval=0.5 mult=(file=1week_30min_gen_pv\gen_wonm_profile_62.csv) useactual=true
New Loadshape.PV_Shape_63 npts=336 interval=0.5 mult=(file=1week_30min_gen_pv\gen_wonm_profile_63.csv) useactual=true
New Loadshape.PV_Shape_64 npts=336 interval=0.5 mult=(file=1week_30min_gen_pv\gen_wonm_profile_64.csv) useactual=true
New Loadshape.PV_Shape_65 npts=336 interval=0.5 mult=(file=1week_30min_gen_pv\gen_wonm_profile_65.csv) useactual=true
New Loadshape.PV_Shape_66 npts=336 interval=0.5 mult=(file=1week_30min_gen_pv\gen_wonm_profile_66.csv) useactual=true
New Loadshape.PV_Shape_67 npts=336 interval=0.5 mult=(file=1week_30min_gen_pv\gen_wonm_profile_67.csv) useactual=true
New Loadshape.PV_Shape_68 npts=336 interval=0.5 mult=(file=1week_30min_gen_pv\gen_wonm_profile_68.csv) useactual=true
New Loadshape.PV_Shape_69 npts=336 interval=0.5 mult=(file=1week_30min_gen_pv\gen_wonm_profile_69.csv) useactual=true
New Loadshape.PV_Shape_70 npts=336 interval=0.5 mult=(file=1week_30min_gen_pv\gen_wonm_profile_70.csv) useactual=true
New Loadshape.PV_Shape_71 npts=336 interval=0.5 mult=(file=1week_30min_gen_pv\gen_wonm_profile_71.csv) useactual=true
New Loadshape.PV_Shape_72 npts=336 interval=0.5 mult=(file=1week_30min_gen_pv\gen_wonm_profile_72.csv) useactual=true
New Loadshape.PV_Shape_73 npts=336 interval=0.5 mult=(file=1week_30min_gen_pv\gen_wonm_profile_73.csv) useactual=true
New Loadshape.PV_Shape_74 npts=336 interval=0.5 mult=(file=1week_30min_gen_pv\gen_wonm_profile_74.csv) useactual=true
New Loadshape.PV_Shape_75 npts=336 interval=0.5 mult=(file=1week_30min_gen_pv\gen_wonm_profile_75.csv) useactual=true
New Loadshape.PV_Shape_76 npts=336 interval=0.5 mult=(file=1week_30min_gen_pv\gen_wonm_profile_76.csv) useactual=true
New Loadshape.PV_Shape_77 npts=336 interval=0.5 mult=(file=1week_30min_gen_pv\gen_wonm_profile_77.csv) useactual=true
New Loadshape.PV_Shape_78 npts=336 interval=0.5 mult=(file=1week_30min_gen_pv\gen_wonm_profile_78.csv) useactual=true
New Loadshape.PV_Shape_79 npts=336 interval=0.5 mult=(file=1week_30min_gen_pv\gen_wonm_profile_79.csv) useactual=true
New Loadshape.PV_Shape_80 npts=336 interval=0.5 mult=(file=1week_30min_gen_pv\gen_wonm_profile_80.csv) useactual=true
New Loadshape.PV_Shape_81 npts=336 interval=0.5 mult=(file=1week_30min_gen_pv\gen_wonm_profile_81.csv) useactual=true
New Loadshape.PV_Shape_82 npts=336 interval=0.5 mult=(file=1week_30min_gen_pv\gen_wonm_profile_82.csv) useactual=true
New Loadshape.PV_Shape_83 npts=336 interval=0.5 mult=(file=1week_30min_gen_pv\gen_wonm_profile_83.csv) useactual=true
New Loadshape.PV_Shape_84 npts=336 interval=0.5 mult=(file=1week_30min_gen_pv\gen_wonm_profile_84.csv) useactual=true
New Loadshape.PV_Shape_85 npts=336 interval=0.5 mult=(file=1week_30min_gen_pv\gen_wonm_profile_85.csv) useactual=true
New Loadshape.PV_Shape_86 npts=336 interval=0.5 mult=(file=1week_30min_gen_pv\gen_wonm_profile_86.csv) useactual=true
New Loadshape.PV_Shape_87 npts=336 interval=0.5 mult=(file=1week_30min_gen_pv\gen_wonm_profile_87.csv) useactual=true
New Loadshape.PV_Shape_88 npts=336 interval=0.5 mult=(file=1week_30min_gen_pv\gen_wonm_profile_88.csv) useactual=true
New Loadshape.PV_Shape_89 npts=336 interval=0.5 mult=(file=1week_30min_gen_pv\gen_wonm_profile_89.csv) useactual=true
New Loadshape.PV_Shape_90 npts=336 interval=0.5 mult=(file=1week_30min_gen_pv\gen_wonm_profile_90.csv) useactual=true
New Loadshape.PV_Shape_91 npts=336 interval=0.5 mult=(file=1week_30min_gen_pv\gen_wonm_profile_91.csv) useactual=true
New Loadshape.PV_Shape_92 npts=336 interval=0.5 mult=(file=1week_30min_gen_pv\gen_wonm_profile_92.csv) useactual=true
New Loadshape.PV_Shape_93 npts=336 interval=0.5 mult=(file=1week_30min_gen_pv\gen_wonm_profile_93.csv) useactual=true
New Loadshape.PV_Shape_94 npts=336 interval=0.5 mult=(file=1week_30min_gen_pv\gen_wonm_profile_94.csv) useactual=true
New Loadshape.PV_Shape_95 npts=336 interval=0.5 mult=(file=1week_30min_gen_pv\gen_wonm_profile_95.csv) useactual=true
New Loadshape.PV_Shape_96 npts=336 interval=0.5 mult=(file=1week_30min_gen_pv\gen_wonm_profile_96.csv) useactual=true
New Loadshape.PV_Shape_97 npts=336 interval=0.5 mult=(file=1week_30min_gen_pv\gen_wonm_profile_97.csv) useactual=true
New Loadshape.PV_Shape_98 npts=336 interval=0.5 mult=(file=1week_30min_gen_pv\gen_wonm_profile_98.csv) useactual=true
New Loadshape.PV_Shape_99 npts=336 interval=0.5 mult=(file=1week_30min_gen_pv\gen_wonm_profile_99.csv) useactual=true
New Loadshape.PV_Shape_100 npts=336 interval=0.5 mult=(file=1week_30min_gen_pv\gen_wonm_profile_100.csv) useactual=true
New Loadshape.PV_Shape_101 npts=336 interval=0.5 mult=(file=1week_30min_gen_pv\gen_wonm_profile_101.csv) useactual=true
New Loadshape.PV_Shape_102 npts=336 interval=0.5 mult=(file=1week_30min_gen_pv\gen_wonm_profile_102.csv) useactual=true
New Loadshape.PV_Shape_103 npts=336 interval=0.5 mult=(file=1week_30min_gen_pv\gen_wonm_profile_103.csv) useactual=true
New Loadshape.PV_Shape_104 npts=336 interval=0.5 mult=(file=1week_30min_gen_pv\gen_wonm_profile_104.csv) useactual=true
New Loadshape.PV_Shape_105 npts=336 interval=0.5 mult=(file=1week_30min_gen_pv\gen_wonm_profile_105.csv) useactual=true
New Loadshape.PV_Shape_106 npts=336 interval=0.5 mult=(file=1week_30min_gen_pv\gen_wonm_profile_106.csv) useactual=true
New Loadshape.PV_Shape_107 npts=336 interval=0.5 mult=(file=1week_30min_gen_pv\gen_wonm_profile_107.csv) useactual=true
New Loadshape.PV_Shape_108 npts=336 interval=0.5 mult=(file=1week_30min_gen_pv\gen_wonm_profile_108.csv) useactual=true
New Loadshape.PV_Shape_109 npts=336 interval=0.5 mult=(file=1week_30min_gen_pv\gen_wonm_profile_109.csv) useactual=true
New Loadshape.PV_Shape_110 npts=336 interval=0.5 mult=(file=1week_30min_gen_pv\gen_wonm_profile_110.csv) useactual=true
New Loadshape.PV_Shape_111 npts=336 interval=0.5 mult=(file=1week_30min_gen_pv\gen_wonm_profile_111.csv) useactual=true
New Loadshape.PV_Shape_112 npts=336 interval=0.5 mult=(file=1week_30min_gen_pv\gen_wonm_profile_112.csv) useactual=true
New Loadshape.PV_Shape_113 npts=336 interval=0.5 mult=(file=1week_30min_gen_pv\gen_wonm_profile_113.csv) useactual=true
New Loadshape.PV_Shape_114 npts=336 interval=0.5 mult=(file=1week_30min_gen_pv\gen_wonm_profile_114.csv) useactual=true
New Loadshape.PV_Shape_115 npts=336 interval=0.5 mult=(file=1week_30min_gen_pv\gen_wonm_profile_115.csv) useactual=true
New Loadshape.PV_Shape_116 npts=336 interval=0.5 mult=(file=1week_30min_gen_pv\gen_wonm_profile_116.csv) useactual=true
New Loadshape.PV_Shape_117 npts=336 interval=0.5 mult=(file=1week_30min_gen_pv\gen_wonm_profile_117.csv) useactual=true
New Loadshape.PV_Shape_118 npts=336 interval=0.5 mult=(file=1week_30min_gen_pv\gen_wonm_profile_118.csv) useactual=true
New Loadshape.PV_Shape_119 npts=336 interval=0.5 mult=(file=1week_30min_gen_pv\gen_wonm_profile_119.csv) useactual=true
New Loadshape.PV_Shape_120 npts=336 interval=0.5 mult=(file=1week_30min_gen_pv\gen_wonm_profile_120.csv) useactual=true
New Loadshape.PV_Shape_121 npts=336 interval=0.5 mult=(file=1week_30min_gen_pv\gen_wonm_profile_121.csv) useactual=true
New Loadshape.PV_Shape_122 npts=336 interval=0.5 mult=(file=1week_30min_gen_pv\gen_wonm_profile_122.csv) useactual=true
New Loadshape.PV_Shape_123 npts=336 interval=0.5 mult=(file=1week_30min_gen_pv\gen_wonm_profile_123.csv) useactual=true
New Loadshape.PV_Shape_124 npts=336 interval=0.5 mult=(file=1week_30min_gen_pv\gen_wonm_profile_124.csv) useactual=true
New Loadshape.PV_Shape_125 npts=336 interval=0.5 mult=(file=1week_30min_gen_pv\gen_wonm_profile_125.csv) useactual=true
New Loadshape.PV_Shape_126 npts=336 interval=0.5 mult=(file=1week_30min_gen_pv\gen_wonm_profile_126.csv) useactual=true
New Loadshape.PV_Shape_127 npts=336 interval=0.5 mult=(file=1week_30min_gen_pv\gen_wonm_profile_127.csv) useactual=true
New Loadshape.PV_Shape_128 npts=336 interval=0.5 mult=(file=1week_30min_gen_pv\gen_wonm_profile_128.csv) useactual=true
New Loadshape.PV_Shape_129 npts=336 interval=0.5 mult=(file=1week_30min_gen_pv\gen_wonm_profile_129.csv) useactual=true
New Loadshape.PV_Shape_130 npts=336 interval=0.5 mult=(file=1week_30min_gen_pv\gen_wonm_profile_130.csv) useactual=true
New Loadshape.PV_Shape_131 npts=336 interval=0.5 mult=(file=1week_30min_gen_pv\gen_wonm_profile_131.csv) useactual=true
New Loadshape.PV_Shape_132 npts=336 interval=0.5 mult=(file=1week_30min_gen_pv\gen_wonm_profile_132.csv) useactual=true
New Loadshape.PV_Shape_133 npts=336 interval=0.5 mult=(file=1week_30min_gen_pv\gen_wonm_profile_133.csv) useactual=true
New Loadshape.PV_Shape_134 npts=336 interval=0.5 mult=(file=1week_30min_gen_pv\gen_wonm_profile_134.csv) useactual=true
New Loadshape.PV_Shape_135 npts=336 interval=0.5 mult=(file=1week_30min_gen_pv\gen_wonm_profile_135.csv) useactual=true
New Loadshape.PV_Shape_136 npts=336 interval=0.5 mult=(file=1week_30min_gen_pv\gen_wonm_profile_136.csv) useactual=true
New Loadshape.PV_Shape_137 npts=336 interval=0.5 mult=(file=1week_30min_gen_pv\gen_wonm_profile_137.csv) useactual=true
New Loadshape.PV_Shape_138 npts=336 interval=0.5 mult=(file=1week_30min_gen_pv\gen_wonm_profile_138.csv) useactual=true
New Loadshape.PV_Shape_139 npts=336 interval=0.5 mult=(file=1week_30min_gen_pv\gen_wonm_profile_139.csv) useactual=true
New Loadshape.PV_Shape_140 npts=336 interval=0.5 mult=(file=1week_30min_gen_pv\gen_wonm_profile_140.csv) useactual=true
New Loadshape.PV_Shape_141 npts=336 interval=0.5 mult=(file=1week_30min_gen_pv\gen_wonm_profile_141.csv) useactual=true
New Loadshape.PV_Shape_142 npts=336 interval=0.5 mult=(file=1week_30min_gen_pv\gen_wonm_profile_142.csv) useactual=true
New Loadshape.PV_Shape_143 npts=336 interval=0.5 mult=(file=1week_30min_gen_pv\gen_wonm_profile_143.csv) useactual=true
New Loadshape.PV_Shape_144 npts=336 interval=0.5 mult=(file=1week_30min_gen_pv\gen_wonm_profile_144.csv) useactual=true
New Loadshape.PV_Shape_145 npts=336 interval=0.5 mult=(file=1week_30min_gen_pv\gen_wonm_profile_145.csv) useactual=true
New Loadshape.PV_Shape_146 npts=336 interval=0.5 mult=(file=1week_30min_gen_pv\gen_wonm_profile_146.csv) useactual=true
New Loadshape.PV_Shape_147 npts=336 interval=0.5 mult=(file=1week_30min_gen_pv\gen_wonm_profile_147.csv) useactual=true
New Loadshape.PV_Shape_148 npts=336 interval=0.5 mult=(file=1week_30min_gen_pv\gen_wonm_profile_148.csv) useactual=true
New Loadshape.PV_Shape_149 npts=336 interval=0.5 mult=(file=1week_30min_gen_pv\gen_wonm_profile_149.csv) useactual=true
New Loadshape.PV_Shape_150 npts=336 interval=0.5 mult=(file=1week_30min_gen_pv\gen_wonm_profile_150.csv) useactual=true
New Loadshape.PV_Shape_151 npts=336 interval=0.5 mult=(file=1week_30min_gen_pv\gen_wonm_profile_151.csv) useactual=true
New Loadshape.PV_Shape_152 npts=336 interval=0.5 mult=(file=1week_30min_gen_pv\gen_wonm_profile_152.csv) useactual=true
New Loadshape.PV_Shape_153 npts=336 interval=0.5 mult=(file=1week_30min_gen_pv\gen_wonm_profile_153.csv) useactual=true
New Loadshape.PV_Shape_154 npts=336 interval=0.5 mult=(file=1week_30min_gen_pv\gen_wonm_profile_154.csv) useactual=true
New Loadshape.PV_Shape_155 npts=336 interval=0.5 mult=(file=1week_30min_gen_pv\gen_wonm_profile_155.csv) useactual=true
New Loadshape.PV_Shape_156 npts=336 interval=0.5 mult=(file=1week_30min_gen_pv\gen_wonm_profile_156.csv) useactual=true
New Loadshape.PV_Shape_157 npts=336 interval=0.5 mult=(file=1week_30min_gen_pv\gen_wonm_profile_157.csv) useactual=true
New Loadshape.PV_Shape_158 npts=336 interval=0.5 mult=(file=1week_30min_gen_pv\gen_wonm_profile_158.csv) useactual=true
New Loadshape.PV_Shape_159 npts=336 interval=0.5 mult=(file=1week_30min_gen_pv\gen_wonm_profile_159.csv) useactual=true
New Loadshape.PV_Shape_160 npts=336 interval=0.5 mult=(file=1week_30min_gen_pv\gen_wonm_profile_160.csv) useactual=true
New Loadshape.PV_Shape_161 npts=336 interval=0.5 mult=(file=1week_30min_gen_pv\gen_wonm_profile_161.csv) useactual=true
